/*--------------------------------*- C++ -*----------------------------------*\
| =========                 |                                                 |
| \\      /  F ield         | OpenFOAM: The Open Source CFD Toolbox           |
|  \\    /   O peration     | Version:  2506                                  |
|   \\  /    A nd           | Website:  www.openfoam.com                      |
|    \\/     M anipulation  |                                                 |
\*---------------------------------------------------------------------------*/
FoamFile
{
    version     2.0;
    format      ascii;
    arch        "LSB;label=32;scalar=64";
    class       featureEdgeMesh;
    location    "constant/triSurface";
    object      wall1.eMesh;
}
// * * * * * * * * * * * * * * * * * * * * * * * * * * * * * * * * * * * * * //


// points:

226
(
(0.25 0.00015 -0.75)
(0.25 0.00015 0.75)
(0.25 -0.00015 -0.75)
(0.25 -0.00015 0.75)
(0.105 -0.005476 -0.75)
(0.11 -0.005293 -0.75)
(0.11 -0.005293 0.75)
(0.105 -0.005476 0.75)
(0.1 -0.005658 -0.75)
(0.1 -0.005658 0.75)
(0.095 -0.00584 -0.75)
(0.095 -0.00584 0.75)
(0.09 -0.006022 -0.75)
(0.09 -0.006022 0.75)
(0.085 -0.006204 -0.75)
(0.085 -0.006204 0.75)
(0.08 -0.006389 -0.75)
(0.08 -0.006389 0.75)
(0.075 -0.006577 -0.75)
(0.075 -0.006577 0.75)
(0.07 -0.006768 -0.75)
(0.07 -0.006768 0.75)
(0.065 -0.006954 -0.75)
(0.065 -0.006954 0.75)
(0.06 -0.00713 -0.75)
(0.06 -0.00713 0.75)
(0.055 -0.007286 -0.75)
(0.055 -0.007286 0.75)
(0.05 -0.007416 -0.75)
(0.05 -0.007416 0.75)
(0.045 -0.007512 -0.75)
(0.045 -0.007512 0.75)
(0.04 -0.007564 -0.75)
(0.04 -0.007564 0.75)
(0.035 -0.00756 -0.75)
(0.035 -0.00756 0.75)
(0.03 -0.007491 -0.75)
(0.03 -0.007491 0.75)
(0.025 -0.007345 -0.75)
(0.025 -0.007345 0.75)
(0.02 -0.007115 -0.75)
(0.02 -0.007115 0.75)
(0.015 -0.006782 -0.75)
(0.015 -0.006782 0.75)
(0.0125 -0.006511 -0.75)
(0.0125 -0.006511 0.75)
(0.01 -0.00613 -0.75)
(0.01 -0.00613 0.75)
(0.0075 -0.005652 -0.75)
(0.0075 -0.005652 0.75)
(0.005 -0.005068 -0.75)
(0.005 -0.005068 0.75)
(0.003 -0.004243 -0.75)
(0.003 -0.004243 0.75)
(0.002 -0.003572 -0.75)
(0.002 -0.003572 0.75)
(0.001 -0.002628 -0.75)
(0.001 -0.002628 0.75)
(0.0005 -0.001953 -0.75)
(0.0005 -0.001953 0.75)
(0.00025 -0.001486 -0.75)
(0.00025 -0.001486 0.75)
(0.000125 -0.001168 -0.75)
(0.000125 -0.001168 0.75)
(0 0 -0.75)
(0 0 0.75)
(0.000125 0.000585 -0.75)
(0.000125 0.000585 0.75)
(0.00025 0.000932 -0.75)
(0.00025 0.000932 0.75)
(0.0005 0.001451 -0.75)
(0.0005 0.001451 0.75)
(0.001 0.002231 -0.75)
(0.001 0.002231 0.75)
(0.002 0.003434 -0.75)
(0.002 0.003434 0.75)
(0.003 0.004465 -0.75)
(0.003 0.004465 0.75)
(0.005 0.006344 -0.75)
(0.005 0.006344 0.75)
(0.0075 0.008256 -0.75)
(0.0075 0.008256 0.75)
(0.01 0.009782 -0.75)
(0.01 0.009782 0.75)
(0.0125 0.011069 -0.75)
(0.0125 0.011069 0.75)
(0.015 0.012189 -0.75)
(0.015 0.012189 0.75)
(0.02 0.014108 -0.75)
(0.02 0.014108 0.75)
(0.025 0.015749 -0.75)
(0.025 0.015749 0.75)
(0.03 0.017155 -0.75)
(0.03 0.017155 0.75)
(0.035 0.018359 -0.75)
(0.035 0.018359 0.75)
(0.04 0.019393 -0.75)
(0.04 0.019393 0.75)
(0.045 0.020267 -0.75)
(0.045 0.020267 0.75)
(0.05 0.02098 -0.75)
(0.05 0.02098 0.75)
(0.055 0.021536 -0.75)
(0.055 0.021536 0.75)
(0.06 0.021958 -0.75)
(0.06 0.021958 0.75)
(0.065 0.022271 -0.75)
(0.065 0.022271 0.75)
(0.07 0.022501 -0.75)
(0.07 0.022501 0.75)
(0.075 0.02267 -0.75)
(0.075 0.02267 0.75)
(0.08 0.022797 -0.75)
(0.08 0.022797 0.75)
(0.085 0.022877 -0.75)
(0.085 0.022877 0.75)
(0.09 0.022907 -0.75)
(0.09 0.022907 0.75)
(0.095 0.02288 -0.75)
(0.095 0.02288 0.75)
(0.1 0.022793 -0.75)
(0.1 0.022793 0.75)
(0.105 0.022642 -0.75)
(0.105 0.022642 0.75)
(0.11 0.022429 -0.75)
(0.11 0.022429 0.75)
(0.115 0.022161 -0.75)
(0.115 0.022161 0.75)
(0.12 0.021839 -0.75)
(0.12 0.021839 0.75)
(0.125 0.021469 -0.75)
(0.125 0.021469 0.75)
(0.13 0.021054 -0.75)
(0.13 0.021054 0.75)
(0.135 0.020593 -0.75)
(0.135 0.020593 0.75)
(0.14 0.020087 -0.75)
(0.14 0.020087 0.75)
(0.145 0.019536 -0.75)
(0.145 0.019536 0.75)
(0.15 0.018941 -0.75)
(0.15 0.018941 0.75)
(0.155 0.018302 -0.75)
(0.155 0.018302 0.75)
(0.16 0.017621 -0.75)
(0.16 0.017621 0.75)
(0.165 0.016901 -0.75)
(0.165 0.016901 0.75)
(0.17 0.016146 -0.75)
(0.17 0.016146 0.75)
(0.175 0.015358 -0.75)
(0.175 0.015358 0.75)
(0.18 0.01454 -0.75)
(0.18 0.01454 0.75)
(0.185 0.013692 -0.75)
(0.185 0.013692 0.75)
(0.19 0.012814 -0.75)
(0.19 0.012814 0.75)
(0.195 0.011907 -0.75)
(0.195 0.011907 0.75)
(0.2 0.010971 -0.75)
(0.2 0.010971 0.75)
(0.205 0.010006 -0.75)
(0.205 0.010006 0.75)
(0.21 0.009014 -0.75)
(0.21 0.009014 0.75)
(0.215 0.007993 -0.75)
(0.215 0.007993 0.75)
(0.22 0.006947 -0.75)
(0.22 0.006947 0.75)
(0.225 0.005875 -0.75)
(0.225 0.005875 0.75)
(0.23 0.004779 -0.75)
(0.23 0.004779 0.75)
(0.235 0.003656 -0.75)
(0.235 0.003656 0.75)
(0.24 0.002506 -0.75)
(0.24 0.002506 0.75)
(0.2425 0.001922 -0.75)
(0.2425 0.001922 0.75)
(0.245 0.001333 -0.75)
(0.245 0.001333 0.75)
(0.2475 0.000742 -0.75)
(0.2475 0.000742 0.75)
(0.2475 -0.000242 -0.75)
(0.2475 -0.000242 0.75)
(0.12 -0.004925 -0.75)
(0.125 -0.00474 -0.75)
(0.13 -0.004556 -0.75)
(0.135 -0.004373 -0.75)
(0.16 -0.003455 -0.75)
(0.17 -0.003088 -0.75)
(0.175 -0.002904 -0.75)
(0.18 -0.002721 -0.75)
(0.185 -0.002537 -0.75)
(0.19 -0.002353 -0.75)
(0.195 -0.00217 -0.75)
(0.2 -0.001986 -0.75)
(0.205 -0.001802 -0.75)
(0.21 -0.001619 -0.75)
(0.215 -0.001435 -0.75)
(0.22 -0.001251 -0.75)
(0.225 -0.001068 -0.75)
(0.23 -0.000884 -0.75)
(0.235 -0.000701 -0.75)
(0.24 -0.000517 -0.75)
(0.24 -0.000517 0.75)
(0.235 -0.000701 0.75)
(0.23 -0.000884 0.75)
(0.225 -0.001068 0.75)
(0.22 -0.001251 0.75)
(0.215 -0.001435 0.75)
(0.21 -0.001619 0.75)
(0.205 -0.001802 0.75)
(0.2 -0.001986 0.75)
(0.195 -0.00217 0.75)
(0.19 -0.002353 0.75)
(0.185 -0.002537 0.75)
(0.18 -0.002721 0.75)
(0.175 -0.002904 0.75)
(0.17 -0.003088 0.75)
(0.135 -0.004373 0.75)
(0.13 -0.004556 0.75)
(0.125 -0.00474 0.75)
(0.12 -0.004925 0.75)
(0.16 -0.003455 0.75)
)


// edges:

228
(
(4 5)
(6 7)
(8 4)
(7 9)
(10 8)
(9 11)
(12 10)
(11 13)
(14 12)
(13 15)
(16 14)
(15 17)
(18 16)
(17 19)
(20 18)
(19 21)
(22 20)
(21 23)
(24 22)
(23 25)
(26 24)
(25 27)
(28 26)
(27 29)
(30 28)
(29 31)
(32 30)
(31 33)
(34 32)
(33 35)
(36 34)
(35 37)
(38 36)
(37 39)
(40 38)
(39 41)
(42 40)
(41 43)
(44 42)
(43 45)
(46 44)
(45 47)
(48 46)
(47 49)
(50 48)
(49 51)
(52 50)
(51 53)
(54 52)
(53 55)
(56 54)
(55 57)
(58 56)
(57 59)
(60 58)
(59 61)
(62 60)
(61 63)
(64 62)
(63 65)
(66 64)
(65 67)
(68 66)
(67 69)
(70 68)
(69 71)
(72 70)
(71 73)
(74 72)
(73 75)
(76 74)
(75 77)
(78 76)
(77 79)
(80 78)
(79 81)
(82 80)
(81 83)
(84 82)
(83 85)
(86 84)
(85 87)
(88 86)
(87 89)
(90 88)
(89 91)
(92 90)
(91 93)
(94 92)
(93 95)
(96 94)
(95 97)
(98 96)
(97 99)
(100 98)
(99 101)
(102 100)
(101 103)
(104 102)
(103 105)
(106 104)
(105 107)
(108 106)
(107 109)
(110 108)
(109 111)
(112 110)
(111 113)
(114 112)
(113 115)
(116 114)
(115 117)
(118 116)
(117 119)
(120 118)
(119 121)
(122 120)
(121 123)
(124 122)
(123 125)
(126 124)
(125 127)
(128 126)
(127 129)
(130 128)
(129 131)
(132 130)
(131 133)
(134 132)
(133 135)
(136 134)
(135 137)
(138 136)
(137 139)
(140 138)
(139 141)
(142 140)
(141 143)
(144 142)
(143 145)
(146 144)
(145 147)
(148 146)
(147 149)
(150 148)
(149 151)
(152 150)
(151 153)
(154 152)
(153 155)
(156 154)
(155 157)
(158 156)
(157 159)
(160 158)
(159 161)
(162 160)
(161 163)
(164 162)
(163 165)
(166 164)
(165 167)
(168 166)
(167 169)
(170 168)
(169 171)
(172 170)
(171 173)
(174 172)
(173 175)
(176 174)
(175 177)
(178 176)
(177 179)
(180 178)
(179 181)
(182 180)
(181 183)
(0 182)
(1 0)
(183 1)
(2 0)
(3 2)
(1 3)
(184 2)
(3 185)
(186 5)
(187 186)
(188 187)
(189 188)
(190 189)
(191 190)
(192 191)
(193 192)
(194 193)
(195 194)
(196 195)
(197 196)
(198 197)
(199 198)
(200 199)
(201 200)
(202 201)
(203 202)
(204 203)
(205 204)
(184 205)
(206 207)
(207 208)
(208 209)
(209 210)
(210 211)
(211 212)
(212 213)
(213 214)
(214 215)
(215 216)
(216 217)
(217 218)
(218 219)
(219 220)
(221 222)
(222 223)
(223 224)
(6 224)
(221 225)
(225 220)
(206 185)
)

// * * * * * * * * * * * * * * * * * * * * * * * * * * * * * * * * * * * * * //


// ************************************************************************* //
