/*--------------------------------*- C++ -*----------------------------------*\
| =========                 |                                                 |
| \\      /  F ield         | OpenFOAM: The Open Source CFD Toolbox           |
|  \\    /   O peration     | Version:  2506                                  |
|   \\  /    A nd           | Website:  www.openfoam.com                      |
|    \\/     M anipulation  |                                                 |
\*---------------------------------------------------------------------------*/
FoamFile
{
    version     2.0;
    format      ascii;
    arch        "LSB;label=32;scalar=64";
    class       extendedFeatureEdgeMesh;
    location    "constant/extendedFeatureEdgeMesh";
    object      inlet2.extendedFeatureEdgeMesh;
}
// * * * * * * * * * * * * * * * * * * * * * * * * * * * * * * * * * * * * * //

// points
8((3 -2 0) (-3 -2 0) (-3 -2 -3) (3 -2 -3) (-3 2 0) (3 2 0) (3 2 -3) (-3 2 -3))
// edges
10((2 3) (6 7) (0 1) (1 2) (3 0) (4 5) (5 6) (7 4) (2 7) (6 3))
// concaveStart mixedStart nonFeatureStart
0 0 8
// internalStart flatStart openStart multipleStart
2 2 2 10
// normals
6((-0 -1 0) (0 -1 -0) (-0 1 0) (0 1 0) (0 0 -1) (0 0 -1))
// normal volume types

6
(
0
0
0
0
0
0
)

// normalDirections

10
(
2(1 -1)
2(1 -1)
1(1)
1(1)
1(1)
1(1)
1(1)
1(1)
1(1)
1(1)
)

// edgeNormals

10
(
2(1 5)
2(3 4)
1(0)
1(0)
1(1)
1(2)
1(2)
1(3)
1(4)
1(5)
)

// featurePointNormals

8
(
1(0)
1(0)
2(1 5)
2(1 5)
1(2)
1(2)
2(3 4)
2(3 4)
)

// featurePointEdges

8
(
2(2 4)
2(2 3)
3(0 3 8)
3(0 4 9)
2(5 7)
2(5 6)
3(1 6 9)
3(1 7 8)
)

// regionEdges
8(2 3 4 5 6 7 8 9)


// ************************************************************************* //
