/*--------------------------------*- C++ -*----------------------------------*\
| =========                 |                                                 |
| \\      /  F ield         | OpenFOAM: The Open Source CFD Toolbox           |
|  \\    /   O peration     | Version:  2506                                  |
|   \\  /    A nd           | Website:  www.openfoam.com                      |
|    \\/     M anipulation  |                                                 |
\*---------------------------------------------------------------------------*/
FoamFile
{
    version     2.0;
    format      ascii;
    arch        "LSB;label=32;scalar=64";
    class       extendedFeatureEdgeMesh;
    location    "constant/extendedFeatureEdgeMesh";
    object      wall1.extendedFeatureEdgeMesh;
}
// * * * * * * * * * * * * * * * * * * * * * * * * * * * * * * * * * * * * * //

// points

226
(
(0.25 0.00015 -0.75)
(0.25 0.00015 0.75)
(0.25 -0.00015 -0.75)
(0.25 -0.00015 0.75)
(0.105 -0.005476 -0.75)
(0.11 -0.005293 -0.75)
(0.11 -0.005293 0.75)
(0.105 -0.005476 0.75)
(0.1 -0.005658 -0.75)
(0.1 -0.005658 0.75)
(0.095 -0.00584 -0.75)
(0.095 -0.00584 0.75)
(0.09 -0.006022 -0.75)
(0.09 -0.006022 0.75)
(0.085 -0.006204 -0.75)
(0.085 -0.006204 0.75)
(0.08 -0.006389 -0.75)
(0.08 -0.006389 0.75)
(0.075 -0.006577 -0.75)
(0.075 -0.006577 0.75)
(0.07 -0.006768 -0.75)
(0.07 -0.006768 0.75)
(0.065 -0.006954 -0.75)
(0.065 -0.006954 0.75)
(0.06 -0.00713 -0.75)
(0.06 -0.00713 0.75)
(0.055 -0.007286 -0.75)
(0.055 -0.007286 0.75)
(0.05 -0.007416 -0.75)
(0.05 -0.007416 0.75)
(0.045 -0.007512 -0.75)
(0.045 -0.007512 0.75)
(0.04 -0.007564 -0.75)
(0.04 -0.007564 0.75)
(0.035 -0.00756 -0.75)
(0.035 -0.00756 0.75)
(0.03 -0.007491 -0.75)
(0.03 -0.007491 0.75)
(0.025 -0.007345 -0.75)
(0.025 -0.007345 0.75)
(0.02 -0.007115 -0.75)
(0.02 -0.007115 0.75)
(0.015 -0.006782 -0.75)
(0.015 -0.006782 0.75)
(0.0125 -0.006511 -0.75)
(0.0125 -0.006511 0.75)
(0.01 -0.00613 -0.75)
(0.01 -0.00613 0.75)
(0.0075 -0.005652 -0.75)
(0.0075 -0.005652 0.75)
(0.005 -0.005068 -0.75)
(0.005 -0.005068 0.75)
(0.003 -0.004243 -0.75)
(0.003 -0.004243 0.75)
(0.002 -0.003572 -0.75)
(0.002 -0.003572 0.75)
(0.001 -0.002628 -0.75)
(0.001 -0.002628 0.75)
(0.0005 -0.001953 -0.75)
(0.0005 -0.001953 0.75)
(0.00025 -0.001486 -0.75)
(0.00025 -0.001486 0.75)
(0.000125 -0.001168 -0.75)
(0.000125 -0.001168 0.75)
(0 0 -0.75)
(0 0 0.75)
(0.000125 0.000585 -0.75)
(0.000125 0.000585 0.75)
(0.00025 0.000932 -0.75)
(0.00025 0.000932 0.75)
(0.0005 0.001451 -0.75)
(0.0005 0.001451 0.75)
(0.001 0.002231 -0.75)
(0.001 0.002231 0.75)
(0.002 0.003434 -0.75)
(0.002 0.003434 0.75)
(0.003 0.004465 -0.75)
(0.003 0.004465 0.75)
(0.005 0.006344 -0.75)
(0.005 0.006344 0.75)
(0.0075 0.008256 -0.75)
(0.0075 0.008256 0.75)
(0.01 0.009782 -0.75)
(0.01 0.009782 0.75)
(0.0125 0.011069 -0.75)
(0.0125 0.011069 0.75)
(0.015 0.012189 -0.75)
(0.015 0.012189 0.75)
(0.02 0.014108 -0.75)
(0.02 0.014108 0.75)
(0.025 0.015749 -0.75)
(0.025 0.015749 0.75)
(0.03 0.017155 -0.75)
(0.03 0.017155 0.75)
(0.035 0.018359 -0.75)
(0.035 0.018359 0.75)
(0.04 0.019393 -0.75)
(0.04 0.019393 0.75)
(0.045 0.020267 -0.75)
(0.045 0.020267 0.75)
(0.05 0.02098 -0.75)
(0.05 0.02098 0.75)
(0.055 0.021536 -0.75)
(0.055 0.021536 0.75)
(0.06 0.021958 -0.75)
(0.06 0.021958 0.75)
(0.065 0.022271 -0.75)
(0.065 0.022271 0.75)
(0.07 0.022501 -0.75)
(0.07 0.022501 0.75)
(0.075 0.02267 -0.75)
(0.075 0.02267 0.75)
(0.08 0.022797 -0.75)
(0.08 0.022797 0.75)
(0.085 0.022877 -0.75)
(0.085 0.022877 0.75)
(0.09 0.022907 -0.75)
(0.09 0.022907 0.75)
(0.095 0.02288 -0.75)
(0.095 0.02288 0.75)
(0.1 0.022793 -0.75)
(0.1 0.022793 0.75)
(0.105 0.022642 -0.75)
(0.105 0.022642 0.75)
(0.11 0.022429 -0.75)
(0.11 0.022429 0.75)
(0.115 0.022161 -0.75)
(0.115 0.022161 0.75)
(0.12 0.021839 -0.75)
(0.12 0.021839 0.75)
(0.125 0.021469 -0.75)
(0.125 0.021469 0.75)
(0.13 0.021054 -0.75)
(0.13 0.021054 0.75)
(0.135 0.020593 -0.75)
(0.135 0.020593 0.75)
(0.14 0.020087 -0.75)
(0.14 0.020087 0.75)
(0.145 0.019536 -0.75)
(0.145 0.019536 0.75)
(0.15 0.018941 -0.75)
(0.15 0.018941 0.75)
(0.155 0.018302 -0.75)
(0.155 0.018302 0.75)
(0.16 0.017621 -0.75)
(0.16 0.017621 0.75)
(0.165 0.016901 -0.75)
(0.165 0.016901 0.75)
(0.17 0.016146 -0.75)
(0.17 0.016146 0.75)
(0.175 0.015358 -0.75)
(0.175 0.015358 0.75)
(0.18 0.01454 -0.75)
(0.18 0.01454 0.75)
(0.185 0.013692 -0.75)
(0.185 0.013692 0.75)
(0.19 0.012814 -0.75)
(0.19 0.012814 0.75)
(0.195 0.011907 -0.75)
(0.195 0.011907 0.75)
(0.2 0.010971 -0.75)
(0.2 0.010971 0.75)
(0.205 0.010006 -0.75)
(0.205 0.010006 0.75)
(0.21 0.009014 -0.75)
(0.21 0.009014 0.75)
(0.215 0.007993 -0.75)
(0.215 0.007993 0.75)
(0.22 0.006947 -0.75)
(0.22 0.006947 0.75)
(0.225 0.005875 -0.75)
(0.225 0.005875 0.75)
(0.23 0.004779 -0.75)
(0.23 0.004779 0.75)
(0.235 0.003656 -0.75)
(0.235 0.003656 0.75)
(0.24 0.002506 -0.75)
(0.24 0.002506 0.75)
(0.2425 0.001922 -0.75)
(0.2425 0.001922 0.75)
(0.245 0.001333 -0.75)
(0.245 0.001333 0.75)
(0.2475 0.000742 -0.75)
(0.2475 0.000742 0.75)
(0.2475 -0.000242 -0.75)
(0.2475 -0.000242 0.75)
(0.12 -0.004925 -0.75)
(0.125 -0.00474 -0.75)
(0.13 -0.004556 -0.75)
(0.135 -0.004373 -0.75)
(0.16 -0.003455 -0.75)
(0.17 -0.003088 -0.75)
(0.175 -0.002904 -0.75)
(0.18 -0.002721 -0.75)
(0.185 -0.002537 -0.75)
(0.19 -0.002353 -0.75)
(0.195 -0.00217 -0.75)
(0.2 -0.001986 -0.75)
(0.205 -0.001802 -0.75)
(0.21 -0.001619 -0.75)
(0.215 -0.001435 -0.75)
(0.22 -0.001251 -0.75)
(0.225 -0.001068 -0.75)
(0.23 -0.000884 -0.75)
(0.235 -0.000701 -0.75)
(0.24 -0.000517 -0.75)
(0.24 -0.000517 0.75)
(0.235 -0.000701 0.75)
(0.23 -0.000884 0.75)
(0.225 -0.001068 0.75)
(0.22 -0.001251 0.75)
(0.215 -0.001435 0.75)
(0.21 -0.001619 0.75)
(0.205 -0.001802 0.75)
(0.2 -0.001986 0.75)
(0.195 -0.00217 0.75)
(0.19 -0.002353 0.75)
(0.185 -0.002537 0.75)
(0.18 -0.002721 0.75)
(0.175 -0.002904 0.75)
(0.17 -0.003088 0.75)
(0.135 -0.004373 0.75)
(0.13 -0.004556 0.75)
(0.125 -0.00474 0.75)
(0.12 -0.004925 0.75)
(0.16 -0.003455 0.75)
)

// edges

228
(
(4 5)
(6 7)
(8 4)
(7 9)
(10 8)
(9 11)
(12 10)
(11 13)
(14 12)
(13 15)
(16 14)
(15 17)
(18 16)
(17 19)
(20 18)
(19 21)
(22 20)
(21 23)
(24 22)
(23 25)
(26 24)
(25 27)
(28 26)
(27 29)
(30 28)
(29 31)
(32 30)
(31 33)
(34 32)
(33 35)
(36 34)
(35 37)
(38 36)
(37 39)
(40 38)
(39 41)
(42 40)
(41 43)
(44 42)
(43 45)
(46 44)
(45 47)
(48 46)
(47 49)
(50 48)
(49 51)
(52 50)
(51 53)
(54 52)
(53 55)
(56 54)
(55 57)
(58 56)
(57 59)
(60 58)
(59 61)
(62 60)
(61 63)
(64 62)
(63 65)
(66 64)
(65 67)
(68 66)
(67 69)
(70 68)
(69 71)
(72 70)
(71 73)
(74 72)
(73 75)
(76 74)
(75 77)
(78 76)
(77 79)
(80 78)
(79 81)
(82 80)
(81 83)
(84 82)
(83 85)
(86 84)
(85 87)
(88 86)
(87 89)
(90 88)
(89 91)
(92 90)
(91 93)
(94 92)
(93 95)
(96 94)
(95 97)
(98 96)
(97 99)
(100 98)
(99 101)
(102 100)
(101 103)
(104 102)
(103 105)
(106 104)
(105 107)
(108 106)
(107 109)
(110 108)
(109 111)
(112 110)
(111 113)
(114 112)
(113 115)
(116 114)
(115 117)
(118 116)
(117 119)
(120 118)
(119 121)
(122 120)
(121 123)
(124 122)
(123 125)
(126 124)
(125 127)
(128 126)
(127 129)
(130 128)
(129 131)
(132 130)
(131 133)
(134 132)
(133 135)
(136 134)
(135 137)
(138 136)
(137 139)
(140 138)
(139 141)
(142 140)
(141 143)
(144 142)
(143 145)
(146 144)
(145 147)
(148 146)
(147 149)
(150 148)
(149 151)
(152 150)
(151 153)
(154 152)
(153 155)
(156 154)
(155 157)
(158 156)
(157 159)
(160 158)
(159 161)
(162 160)
(161 163)
(164 162)
(163 165)
(166 164)
(165 167)
(168 166)
(167 169)
(170 168)
(169 171)
(172 170)
(171 173)
(174 172)
(173 175)
(176 174)
(175 177)
(178 176)
(177 179)
(180 178)
(179 181)
(182 180)
(181 183)
(0 182)
(1 0)
(183 1)
(2 0)
(3 2)
(1 3)
(184 2)
(3 185)
(186 5)
(187 186)
(188 187)
(189 188)
(190 189)
(191 190)
(192 191)
(193 192)
(194 193)
(195 194)
(196 195)
(197 196)
(198 197)
(199 198)
(200 199)
(201 200)
(202 201)
(203 202)
(204 203)
(205 204)
(184 205)
(206 207)
(207 208)
(208 209)
(209 210)
(210 211)
(211 212)
(212 213)
(213 214)
(214 215)
(215 216)
(216 217)
(217 218)
(218 219)
(219 220)
(221 222)
(222 223)
(223 224)
(6 224)
(221 225)
(225 220)
(206 185)
)

// concaveStart mixedStart nonFeatureStart
4 4 4
// internalStart flatStart openStart multipleStart
228 228 228 228
// normals

448
(
(0.0365754 -0.999331 0)
(0 0 -1)
(0.0365754 -0.999331 0)
(0 0 1)
(0.0363759 -0.999338 0)
(0 0 -1)
(0.0363759 -0.999338 0)
(0 0 1)
(0.036376 -0.999338 0)
(0 0 -1)
(0.036376 -0.999338 0)
(0 0 1)
(0.0363759 -0.999338 0)
(0 0 -1)
(0.0363759 -0.999338 0)
(0 0 1)
(0.0363759 -0.999338 0)
(0 0 -1)
(0.0363759 -0.999338 0)
(0 0 1)
(0.0369746 -0.999316 0)
(0 0 -1)
(0.0369746 -0.999316 0)
(0 0 1)
(0.0375735 -0.999294 0)
(0 0 -1)
(0.0375735 -0.999294 0)
(0 0 1)
(0.0381721 -0.999271 0)
(0 0 -1)
(0.0381721 -0.999271 0)
(0 0 1)
(0.0371743 -0.999309 0)
(0 0 -1)
(0.0371743 -0.999309 0)
(0 0 1)
(0.0351782 -0.999381 0)
(0 0 -1)
(0.0351782 -0.999381 0)
(0 0 1)
(0.0311849 -0.999514 0)
(0 0 -1)
(0.0311849 -0.999514 0)
(0 0 1)
(0.0259912 -0.999662 0)
(0 0 -1)
(0.0259912 -0.999662 0)
(0 0 1)
(0.0191964 -0.999816 0)
(0 0 -1)
(0.0191964 -0.999816 0)
(0 0 1)
(0.0103994 -0.999946 0)
(0 0 -1)
(0.0103994 -0.999946 0)
(0 0 1)
(-0.000800006 -1 0)
(0 0 -1)
(-0.000800006 -1 0)
(0 0 1)
(-0.0137986 -0.999905 0)
(0 0 -1)
(-0.0137986 -0.999905 0)
(0 0 1)
(-0.0291876 -0.999574 0)
(0 0 -1)
(-0.0291876 -0.999574 0)
(0 0 1)
(-0.0459514 -0.998944 0)
(0 0 -1)
(-0.0459514 -0.998944 0)
(0 0 1)
(-0.0664528 -0.99779 0)
(0 0 -1)
(-0.0664528 -0.99779 0)
(0 0 1)
(-0.107769 -0.994176 0)
(0 0 -1)
(-0.107769 -0.994176 0)
(0 0 1)
(-0.15066 -0.988586 0)
(0 0 -1)
(-0.15066 -0.988586 0)
(0 0 1)
(-0.187798 -0.982208 0)
(0 0 -1)
(-0.187798 -0.982208 0)
(0 0 1)
(-0.227476 -0.973784 0)
(0 0 -1)
(-0.227476 -0.973784 0)
(0 0 1)
(-0.381331 -0.924439 0)
(0 0 -1)
(-0.381331 -0.924439 0)
(0 0 1)
(-0.557189 -0.830386 0)
(0 0 -1)
(-0.557189 -0.830386 0)
(0 0 1)
(-0.686453 -0.727174 0)
(0 0 -1)
(-0.686453 -0.727174 0)
(0 0 1)
(-0.803557 -0.595228 0)
(0 0 -1)
(-0.803557 -0.595228 0)
(0 0 1)
(-0.88162 -0.47196 0)
(0 0 -1)
(-0.88162 -0.47196 0)
(0 0 1)
(-0.93068 -0.365834 0)
(0 0 -1)
(-0.93068 -0.365834 0)
(0 0 1)
(-0.994322 -0.106413 0)
(0 0 -1)
(-0.994322 -0.106413 0)
(0 0 1)
(-0.977925 0.208958 0)
(-0.977925 0.208958 0)
(-0.940818 0.338911 0)
(0 0 -1)
(-0.940818 0.338911 0)
(0 0 1)
(-0.900926 0.433972 0)
(0 0 -1)
(-0.900926 0.433972 0)
(0 0 1)
(-0.841879 0.539666 0)
(0 0 -1)
(-0.841879 0.539666 0)
(0 0 1)
(-0.769007 0.639241 0)
(0 0 -1)
(-0.769007 0.639241 0)
(0 0 1)
(-0.717816 0.696233 0)
(0 0 -1)
(-0.717816 0.696233 0)
(0 0 1)
(-0.684717 0.728809 0)
(0 0 -1)
(-0.684717 0.728809 0)
(0 0 1)
(-0.607497 0.794322 0)
(0 0 -1)
(-0.607497 0.794322 0)
(0 0 1)
(-0.521008 0.853552 0)
(0 0 -1)
(-0.521008 0.853552 0)
(0 0 1)
(-0.457709 0.889102 0)
(0 0 -1)
(-0.457709 0.889102 0)
(0 0 1)
(-0.408846 0.912603 0)
(0 0 -1)
(-0.408846 0.912603 0)
(0 0 1)
(-0.358316 0.9336 0)
(0 0 -1)
(-0.358316 0.9336 0)
(0 0 1)
(-0.311835 0.950136 0)
(0 0 -1)
(-0.311835 0.950136 0)
(0 0 1)
(-0.270701 0.962664 0)
(0 0 -1)
(-0.270701 0.962664 0)
(0 0 1)
(-0.234108 0.97221 0)
(0 0 -1)
(-0.234108 0.97221 0)
(0 0 1)
(-0.202515 0.979279 0)
(0 0 -1)
(-0.202515 0.979279 0)
(0 0 1)
(-0.172189 0.985064 0)
(0 0 -1)
(-0.172189 0.985064 0)
(0 0 1)
(-0.141172 0.989985 0)
(0 0 -1)
(-0.141172 0.989985 0)
(0 0 1)
(-0.110519 0.993874 0)
(0 0 -1)
(-0.110519 0.993874 0)
(0 0 1)
(-0.0841008 0.996457 0)
(0 0 -1)
(-0.0841008 0.996457 0)
(0 0 1)
(-0.0624779 0.998046 0)
(0 0 -1)
(-0.0624779 0.998046 0)
(0 0 1)
(-0.0459513 0.998944 0)
(0 0 -1)
(-0.0459513 0.998944 0)
(0 0 1)
(-0.033781 0.999429 0)
(0 0 -1)
(-0.033781 0.999429 0)
(0 0 1)
(-0.0253916 0.999678 0)
(0 0 -1)
(-0.0253916 0.999678 0)
(0 0 1)
(-0.0159981 0.999872 0)
(0 0 -1)
(-0.0159981 0.999872 0)
(0 0 1)
(-0.00599984 0.999982 0)
(0 0 -1)
(-0.00599984 0.999982 0)
(0 0 1)
(0.00540011 0.999985 0)
(0 0 -1)
(0.00540011 0.999985 -0)
(0 0 1)
(0.0173971 0.999849 0)
(0 0 -1)
(0.0173971 0.999849 -0)
(0 0 1)
(0.0301864 0.999544 0)
(0 0 -1)
(0.0301864 0.999544 -0)
(0 0 1)
(0.0425612 0.999094 0)
(0 0 -1)
(0.0425612 0.999094 -0)
(0 0 1)
(0.0535234 0.998567 0)
(0 0 -1)
(0.0535234 0.998567 -0)
(0 0 1)
(0.0642668 0.997933 0)
(0 0 -1)
(0.0642668 0.997933 -0)
(0 0 1)
(0.0737981 0.997273 0)
(0 0 -1)
(0.0737981 0.997273 -0)
(0 0 1)
(0.0827159 0.996573 0)
(0 0 -1)
(0.0827159 0.996573 -0)
(0 0 1)
(0.0918102 0.995777 0)
(0 0 -1)
(0.0918102 0.995777 -0)
(0 0 1)
(0.100686 0.994918 0)
(0 0 -1)
(0.100686 0.994918 -0)
(0 0 1)
(0.109537 0.993983 0)
(0 -0 -1)
(0.109537 0.993983 -0)
(0 0 1)
(0.118166 0.992994 0)
(0 -0 -1)
(0.118166 0.992994 -0)
(0 0 1)
(0.126769 0.991932 0)
(0 0 -1)
(0.126769 0.991932 -0)
(0 0 1)
(0.134954 0.990852 0)
(0 0 -1)
(0.134954 0.990852 -0)
(0 0 1)
(0.14253 0.989791 0)
(0 0 -1)
(0.14253 0.989791 -0)
(0 0 1)
(0.149307 0.988791 0)
(0 0 -1)
(0.149307 0.988791 -0)
(0 0 1)
(0.155679 0.987808 0)
(0 0 -1)
(0.155679 0.987808 -0)
(0 0 1)
(0.161453 0.98688 0)
(0 0 -1)
(0.161453 0.98688 -0)
(0 0 1)
(0.167212 0.985921 0)
(0 0 -1)
(0.167212 0.985921 -0)
(0 0 1)
(0.172954 0.98493 0)
(0 0 -1)
(0.172954 0.98493 -0)
(0 0 1)
(0.178487 0.983942 0)
(0 0 -1)
(0.178487 0.983942 -0)
(0 0 1)
(0.184003 0.982926 0)
(0 0 -1)
(0.184003 0.982926 -0)
(0 0 1)
(0.189503 0.98188 0)
(0 0 -1)
(0.189503 0.98188 -0)
(0 0 1)
(0.194607 0.980881 0)
(0 0 -1)
(0.194607 0.980881 -0)
(0 0 1)
(0.200071 0.979781 0)
(0 0 -1)
(0.200071 0.979781 -0)
(0 0 1)
(0.204767 0.978811 0)
(0 0 -1)
(0.204767 0.978811 -0)
(0 0 1)
(0.209636 0.977779 0)
(0 0 -1)
(0.209636 0.977779 -0)
(0 0 1)
(0.214116 0.976808 0)
(0 0 -1)
(0.214116 0.976808 -0)
(0 0 1)
(0.219141 0.975693 0)
(0 0 -1)
(0.219141 0.975693 -0)
(0 0 1)
(0.224148 0.974555 0)
(0 0 -1)
(0.224148 0.974555 -0)
(0 0 1)
(0.227475 0.973784 0)
(0 0 -1)
(0.227475 0.973784 -0)
(0 0 1)
(0.229322 0.973351 0)
(0 -0 -1)
(0.229322 0.973351 -0)
(0 0 1)
(0.230059 0.973177 0)
(0 0 -1)
(0.230059 0.973177 -0)
(0 0 1)
(0.230428 0.973089 0)
(0 0 -1)
(0.230428 0.973089 -0)
(1 0 0)
(0 0 1)
(0 0 -1)
(1 0 0)
(0.0367751 -0.999324 0)
(0 0 1)
(0.0367751 -0.999324 0)
(0 0 -1)
(0.0367751 -0.999324 0)
(0 0 -1)
(0.0369747 -0.999316 0)
(0 0 -1)
(0.0367751 -0.999324 0)
(0 0 -1)
(0.0365755 -0.999331 0)
(0 0 -1)
(0.0366953 -0.999327 0)
(0 0 -1)
(0.0366753 -0.999327 0)
(0 0 -1)
(0.0367751 -0.999324 0)
(0 0 -1)
(0.0365754 -0.999331 0)
(0 0 -1)
(0.0367751 -0.999324 0)
(0 0 -1)
(0.0367751 -0.999324 0)
(0 0 -1)
(0.0365755 -0.999331 0)
(0 0 -1)
(0.036775 -0.999324 0)
(0 0 -1)
(0.0367751 -0.999324 0)
(0 0 -1)
(0.0365755 -0.999331 0)
(0 0 -1)
(0.036775 -0.999324 0)
(0 0 -1)
(0.0367751 -0.999324 0)
(0 0 -1)
(0.0365755 -0.999331 0)
(0 0 -1)
(0.036775 -0.999324 0)
(0 0 -1)
(0.0365755 -0.999331 0)
(0 0 -1)
(0.0367751 -0.999324 0)
(0 -0 -1)
(0.036642 -0.999328 0)
(0.0367751 -0.999324 0)
(0 0 1)
(0.0365755 -0.999331 0)
(0 0 1)
(0.036775 -0.999324 0)
(0 0 1)
(0.0365755 -0.999331 0)
(0 0 1)
(0.0367751 -0.999324 0)
(0 0 1)
(0.036775 -0.999324 0)
(0 0 1)
(0.0365755 -0.999331 0)
(0 0 1)
(0.0367751 -0.999324 0)
(0 0 1)
(0.036775 -0.999324 0)
(0 0 1)
(0.0365755 -0.999331 0)
(0 0 1)
(0.0367751 -0.999324 0)
(0 0 1)
(0.0367751 -0.999324 0)
(0 0 1)
(0.0365754 -0.999331 0)
(0 0 1)
(0.0367751 -0.999324 0)
(0 0 1)
(0.0365755 -0.999331 0)
(0 0 1)
(0.0367751 -0.999324 0)
(0 0 1)
(0.0369747 -0.999316 0)
(0 0 1)
(0 0 1)
(0.0367751 -0.999324 0)
(0 0 1)
(0.0366953 -0.999327 0)
(0 0 1)
(0.0366753 -0.999327 0)
(0 0 1)
(0.036642 -0.999328 0)
)

// normal volume types

448
(
0
0
0
0
0
0
0
0
0
0
0
0
0
0
0
0
0
0
0
0
0
0
0
0
0
0
0
0
0
0
0
0
0
0
0
0
0
0
0
0
0
0
0
0
0
0
0
0
0
0
0
0
0
0
0
0
0
0
0
0
0
0
0
0
0
0
0
0
0
0
0
0
0
0
0
0
0
0
0
0
0
0
0
0
0
0
0
0
0
0
0
0
0
0
0
0
0
0
0
0
0
0
0
0
0
0
0
0
0
0
0
0
0
0
0
0
0
0
0
0
0
0
0
0
0
0
0
0
0
0
0
0
0
0
0
0
0
0
0
0
0
0
0
0
0
0
0
0
0
0
0
0
0
0
0
0
0
0
0
0
0
0
0
0
0
0
0
0
0
0
0
0
0
0
0
0
0
0
0
0
0
0
0
0
0
0
0
0
0
0
0
0
0
0
0
0
0
0
0
0
0
0
0
0
0
0
0
0
0
0
0
0
0
0
0
0
0
0
0
0
0
0
0
0
0
0
0
0
0
0
0
0
0
0
0
0
0
0
0
0
0
0
0
0
0
0
0
0
0
0
0
0
0
0
0
0
0
0
0
0
0
0
0
0
0
0
0
0
0
0
0
0
0
0
0
0
0
0
0
0
0
0
0
0
0
0
0
0
0
0
0
0
0
0
0
0
0
0
0
0
0
0
0
0
0
0
0
0
0
0
0
0
0
0
0
0
0
0
0
0
0
0
0
0
0
0
0
0
0
0
0
0
0
0
0
0
0
0
0
0
0
0
0
0
0
0
0
0
0
0
0
0
0
0
0
0
0
0
0
0
0
0
0
0
0
0
0
0
0
0
0
0
0
0
0
0
0
0
0
0
0
0
0
0
0
0
0
0
0
0
0
0
0
0
0
0
0
0
0
0
0
0
0
0
0
0
0
0
0
0
0
0
0
0
0
0
0
0
0
0
0
0
0
0
0
0
0
0
0
0
0
0
0
0
0
0
0
0
0
0
0
0
0
0
0
0
0
0
)

// normalDirections

228
(
2(1 -1)
2(1 -1)
2(1 -1)
2(1 -1)
2(1 -1)
2(1 -1)
2(1 -1)
2(1 -1)
2(1 -1)
2(1 -1)
2(1 -1)
2(1 -1)
2(1 -1)
2(1 -1)
2(1 -1)
2(1 -1)
2(1 -1)
2(1 -1)
2(1 -1)
2(1 -1)
2(1 -1)
2(1 -1)
2(1 -1)
2(1 -1)
2(1 -1)
2(1 -1)
2(1 -1)
2(1 -1)
2(1 -1)
2(1 -1)
2(1 -1)
2(1 -1)
2(1 -1)
2(1 -1)
2(1 -1)
2(1 -1)
2(1 -1)
2(1 -1)
2(1 -1)
2(1 -1)
2(1 -1)
2(1 -1)
2(1 -1)
2(1 -1)
2(1 -1)
2(1 -1)
2(1 -1)
2(1 -1)
2(1 -1)
2(1 -1)
2(1 -1)
2(1 -1)
2(1 -1)
2(1 -1)
2(1 -1)
2(1 -1)
2(1 -1)
2(1 -1)
2(1 -1)
2(1 -1)
2(1 -1)
2(1 -1)
2(1 -1)
2(1 -1)
2(1 -1)
2(1 -1)
2(1 -1)
2(1 -1)
2(1 -1)
2(1 -1)
2(1 -1)
2(1 -1)
2(1 -1)
2(1 -1)
2(1 -1)
2(1 -1)
2(1 -1)
2(1 -1)
2(1 -1)
2(1 -1)
2(1 -1)
2(1 -1)
2(1 -1)
2(1 -1)
2(1 -1)
2(1 -1)
2(1 -1)
2(1 -1)
2(1 -1)
2(1 -1)
2(1 -1)
2(1 -1)
2(1 -1)
2(1 -1)
2(1 -1)
2(1 -1)
2(1 -1)
2(1 -1)
2(1 -1)
2(1 -1)
2(1 -1)
2(1 -1)
2(1 -1)
2(1 -1)
2(1 -1)
2(1 -1)
2(1 -1)
2(1 -1)
2(1 -1)
2(1 -1)
2(1 -1)
2(1 -1)
2(1 -1)
2(1 -1)
2(1 -1)
2(1 -1)
2(1 -1)
2(1 -1)
2(1 -1)
2(1 -1)
2(1 -1)
2(1 -1)
2(1 -1)
2(1 -1)
2(1 -1)
2(1 -1)
2(1 -1)
2(1 -1)
2(1 -1)
2(1 -1)
2(1 -1)
2(1 -1)
2(1 -1)
2(1 -1)
2(1 -1)
2(1 -1)
2(1 -1)
2(1 -1)
2(1 -1)
2(1 -1)
2(1 -1)
2(1 -1)
2(1 -1)
2(1 -1)
2(1 -1)
2(1 -1)
2(1 -1)
2(1 -1)
2(1 -1)
2(1 -1)
2(1 -1)
2(1 -1)
2(1 -1)
2(1 -1)
2(1 -1)
2(1 -1)
2(1 -1)
2(1 -1)
2(1 -1)
2(1 -1)
2(1 -1)
2(1 -1)
2(1 -1)
2(1 -1)
2(1 -1)
2(1 -1)
2(1 -1)
2(1 -1)
2(1 -1)
2(1 -1)
2(1 -1)
2(1 -1)
2(1 -1)
2(1 -1)
2(1 -1)
2(1 -1)
2(1 -1)
2(1 -1)
2(1 -1)
2(1 -1)
2(1 -1)
2(1 -1)
2(1 -1)
2(1 -1)
2(1 -1)
2(1 -1)
2(1 -1)
2(1 -1)
2(1 -1)
2(1 -1)
2(1 -1)
2(1 -1)
2(1 -1)
2(1 -1)
2(1 -1)
2(1 -1)
2(1 -1)
2(1 -1)
2(1 -1)
2(1 -1)
2(1 -1)
2(1 -1)
2(1 -1)
2(1 -1)
2(1 -1)
2(1 -1)
2(1 -1)
2(1 -1)
2(1 -1)
2(1 -1)
2(1 -1)
2(1 -1)
2(1 -1)
2(1 -1)
2(1 -1)
2(1 -1)
2(1 -1)
2(1 -1)
2(1 -1)
2(1 -1)
2(1 -1)
2(1 -1)
2(1 -1)
2(1 -1)
2(1 -1)
2(1 -1)
2(1 -1)
2(1 -1)
)

// edgeNormals

228
(
2(0 1)
2(2 3)
2(4 5)
2(6 7)
2(8 9)
2(10 11)
2(12 13)
2(14 15)
2(16 17)
2(18 19)
2(20 21)
2(22 23)
2(24 25)
2(26 27)
2(28 29)
2(30 31)
2(32 33)
2(34 35)
2(36 37)
2(38 39)
2(40 41)
2(42 43)
2(44 45)
2(46 47)
2(48 49)
2(50 51)
2(52 53)
2(54 55)
2(56 57)
2(58 59)
2(60 61)
2(62 63)
2(64 65)
2(66 67)
2(68 69)
2(70 71)
2(72 73)
2(74 75)
2(76 77)
2(78 79)
2(80 81)
2(82 83)
2(84 85)
2(86 87)
2(88 89)
2(90 91)
2(92 93)
2(94 95)
2(96 97)
2(98 99)
2(100 101)
2(102 103)
2(104 105)
2(106 107)
2(108 109)
2(110 111)
2(112 113)
2(114 115)
2(116 117)
2(118 119)
2(120 117)
2(121 119)
2(122 123)
2(124 125)
2(126 127)
2(128 129)
2(130 131)
2(132 133)
2(134 135)
2(136 137)
2(138 139)
2(140 141)
2(142 143)
2(144 145)
2(146 147)
2(148 149)
2(150 151)
2(152 153)
2(154 155)
2(156 157)
2(158 159)
2(160 161)
2(162 163)
2(164 165)
2(166 167)
2(168 169)
2(170 171)
2(172 173)
2(174 175)
2(176 177)
2(178 179)
2(180 181)
2(182 183)
2(184 185)
2(186 187)
2(188 189)
2(190 191)
2(192 193)
2(194 195)
2(196 197)
2(198 199)
2(200 201)
2(202 203)
2(204 205)
2(206 207)
2(208 209)
2(210 211)
2(212 213)
2(214 215)
2(216 217)
2(218 219)
2(220 221)
2(222 223)
2(224 225)
2(226 227)
2(228 229)
2(230 231)
2(232 233)
2(234 235)
2(236 237)
2(238 239)
2(240 241)
2(242 243)
2(244 245)
2(246 247)
2(248 249)
2(250 251)
2(252 253)
2(254 255)
2(256 257)
2(258 259)
2(260 261)
2(262 263)
2(264 265)
2(266 267)
2(268 269)
2(270 271)
2(272 273)
2(274 275)
2(276 277)
2(278 279)
2(280 281)
2(282 283)
2(284 285)
2(286 287)
2(288 289)
2(290 291)
2(292 293)
2(294 295)
2(296 297)
2(298 299)
2(300 301)
2(302 303)
2(304 305)
2(306 307)
2(308 309)
2(310 311)
2(312 313)
2(314 315)
2(316 317)
2(318 319)
2(320 321)
2(322 323)
2(324 325)
2(326 327)
2(328 329)
2(330 331)
2(332 333)
2(334 335)
2(336 337)
2(338 339)
2(340 341)
2(342 343)
2(344 345)
2(346 347)
2(348 349)
2(350 351)
2(352 353)
2(354 355)
2(356 357)
2(356 358)
2(357 359)
2(360 361)
2(360 362)
2(361 359)
2(363 362)
2(364 365)
2(366 367)
2(368 369)
2(370 371)
2(372 373)
2(374 375)
2(376 377)
2(378 379)
2(380 381)
2(382 383)
2(384 385)
2(386 387)
2(388 389)
2(390 391)
2(392 393)
2(394 395)
2(396 397)
2(398 399)
2(400 401)
2(402 403)
2(404 405)
2(406 407)
2(408 409)
2(410 411)
2(412 413)
2(414 415)
2(416 417)
2(418 419)
2(420 421)
2(422 423)
2(424 425)
2(426 427)
2(428 429)
2(430 431)
2(432 433)
2(434 435)
2(436 437)
2(438 439)
2(440 441)
2(442 443)
2(444 445)
2(446 447)
)

// featurePointNormals

4
(
3(354 355 357)
3(356 357 358)
3(357 359 361)
3(360 361 362)
)

// featurePointEdges

4
(
3(179 181 178)
3(179 183 180)
3(182 184 181)
3(182 185 183)
)

// regionEdges
0()


// ************************************************************************* //
